-------------------------------------------------------
          Amber 24 PMEMD                              2024
          -------------------------------------------------------

  [-O]verwriting output

File Assignments:

 Here is the input file:

dna_dye: 2ns production run (NPT)
 &cntrl
  imin   = 0,			! MD: Minimization turned off (run MD)
  nstlim = 1000000,		! MD: # of MD steps
  dt = 0.002,			! MD: Time step (fs)
  irest  = 1,			! INIT: read velocities from previous run
  ntx    = 7,			! INIT: read in coordinates and box dimensions from previous ru
  iwrap  = 1,			! INIT: Wrap molecules back into periodic box when they diffuse
  cut    = 8.0, 		! INIT: Cutoff radius (angstroms) beyond which interactions a
  ntr    = 1,			! INIT: Position restraint on GROUP (below)
  ntc    = 2,			! INIT: Turn on SHAKE to constrain bonds involving hydrogen ato
  ntf    = 2,			! INIT: Do not compute forces for hydrogen atoms (since bonds a
  ntp    = 2,			! BAROSTAT: Constant pressure (NPT) using Berendsen thermostat
  pres0  = 1.0, 		! BAROSTAT: Target pressure (atm)
  taup   = 2.0, 		! BAROSTAT: Pressure relaxation time (ps)
  tempi  = 300.0,		! THERMOSTAT: Start temperature (K)
  temp0  = 300.0,		! THERMOSTAT: Final temperature (K)
  ntt    = 3,			! THERMOSTAT: Langevin thermostat
  gamma_ln = 5.0,		! THERMOSTAT: Collision frequency (ps-1), i.e. random force
  ig   = -1,			! THERMOSTAT: Random seed chosen automatically for thermostat
  ntpr = 5000, 			! OUT: How often to write in out file (energy/log data)
  ntwx = 5000, 			! OUT: How often to write in traj file (trajectory data)
  ntwr = 50000, 		! OUT: How often to write in restart file
  ioutfm = 0			! OUT: trajectory output format ASCII
  restraint_wt = 5.0,     		! RESTRAINT: force constant (kcal mol-1 ang-2)
  restraintmask = '(:1,1,20,21,40)',	! RESTRAINT: Residue indices to restrain (
/

Note: ig = -1. Setting random seed to   647839 based on wallclock time in
      microseconds.

--------------------------------------------------------------------------------
   1.  RESOURCE   USE:
--------------------------------------------------------------------------------

 getting box info from netcdf restart file
 NATOM  =   56038 NTYPES =      17 NBONH =   55156 MBONA  =     946
 NTHETH =    1208 MTHETA =    1454 NPHIH =    2502 MPHIA  =    3018
 NHPARM =       0 NPARM  =       0 NNB   =   80482 NRES   =   18290
 NBONA  =     946 NTHETA =    1454 NPHIA =    3018 NUMBND =      54
 NUMANG =     100 NPTRA  =      64 NATYP =      36 NPHB   =       0
 IFBOX  =       1 NMXRS  =      75 IFCAP =       0 NEXTRA =       0
 NCOPY  =       0

     BOX TYPE: RECTILINEAR

--------------------------------------------------------------------------------
   2.  CONTROL  DATA  FOR  THE  RUN
--------------------------------------------------------------------------------

default_name

General flags:
     imin    =       0, nmropt  =       0

Nature and format of input:
     ntx     =       7, irest   =       1, ntrx    =       1

Nature and format of output:
     ntxo    =       2, ntpr    =    5000, ntrx    =       1, ntwr    =   50000
     iwrap   =       1, ntwx    =    5000, ntwv    =       0, ntwe    =       0
     ioutfm  =       0, ntwprt  =       0, idecomp =       0, rbornstat=      0

Potential function:
     ntf     =       2, ntb     =       2, igb     =       0, nsnb    =      25
     ipol    =       0, gbsa    =       0, iesp    =       0
     dielc   =   1.00000, cut     =   8.00000, intdiel =   1.00000

Frozen or restrained atoms:
     ibelly  =       0, ntr     =       1
     restraint_wt =   5.00000

Molecular dynamics:
     nstlim  =   1000000, nscm    =         0, nrespa  =         1
     t       =   0.00000, dt      =   0.00200, vlimit  =  -1.00000

Langevin dynamics temperature regulation:
     ig      =  647839
     temp0   = 300.00000, tempi   = 300.00000, gamma_ln=   5.00000

Pressure regulation:
     ntp     =       2
     pres0   =   1.00000, comp    =  44.60000, taup    =   2.00000

SHAKE:
     ntc     =       2, jfastw  =       0
     tol     =   0.00001

Ewald parameters:
     verbose =       0, ew_type =       0, nbflag  =       1, use_pme =       1
     vdwmeth =       1, eedmeth =       1, netfrc  =       1
     Box X =   74.118   Box Y =   69.231   Box Z =  110.844
     Alpha =   90.000   Beta  =   90.000   Gamma =   90.000
     NFFT1 =   80       NFFT2 =   72       NFFT3 =  112
     Cutoff=    8.000   Tol   =0.100E-04
     Ewald Coefficient =  0.34864
     Interpolation order =    4

    LOADING THE CONSTRAINED ATOMS AS GROUPS

   5.  REFERENCE ATOM COORDINATES

  default_name
     Mask (:1,1,20,21,40); matches   126 atoms

--------------------------------------------------------------------------------
   3.  ATOMIC COORDINATES AND VELOCITIES
--------------------------------------------------------------------------------

default_name
 begin time read from input coords =    60.000 ps

 Number of triangulated 3-point waters found:    18214

     Sum of charges from parm topology file =   0.00100416
     Forcing neutrality...

--------------------------------------------------------------------------------
   4.  RESULTS
 NSTEP =     5000   TIME(PS) =      70.000  TEMP(K) =   300.10  PRESS =    93.6
 Etot   =   -150122.9241  EKtot   =     33681.4922  EPtot      =   -183804.4163
 BOND   =       344.6878  ANGLE   =       783.1414  DIHED      =      1178.7996
 1-4 NB =       339.0082  1-4 EEL =      -660.2622  VDWAALS    =     25547.4287
 EELEC  =   -211358.5766  EHBOND  =         0.0000  RESTRAINT  =        21.3567
 EAMBER (non-restraint)  =   -183825.7730
 EKCMT  =     16280.9271  VIRIAL  =     15137.3274  VOLUME     =    565990.9811
                                                    Density    =         1.0021
 ------------------------------------------------------------------------------

      A V E R A G E S   O V E R     200 S T E P S

 NSTEP =  1000000   TIME(PS) =    2060.000  TEMP(K) =   300.10  PRESS =    -2.7
 Etot   =   -150270.2683  EKtot   =     33681.4437  EPtot      =   -183951.7120
 BOND   =       326.3622  ANGLE   =       793.2900  DIHED      =      1173.7596
 1-4 NB =       350.1224  1-4 EEL =      -639.9954  VDWAALS    =     25167.8532
 EELEC  =   -211144.4247  EHBOND  =         0.0000  RESTRAINT  =        21.3206
 EAMBER (non-restraint)  =   -183973.0326
 EKCMT  =     16371.3458  VIRIAL  =     16404.6744  VOLUME     =    564684.7107
                                                    Density    =         1.0045
 ------------------------------------------------------------------------------

      R M S  F L U C T U A T I O N S

 NSTEP =  1000000   TIME(PS) =    2060.000  TEMP(K) =     1.21  PRESS =    96.0
 Etot   =       236.2222  EKtot   =       135.7544  EPtot      =       190.4003
 BOND   =        15.2759  ANGLE   =        21.1860  DIHED      =        13.0819
 1-4 NB =         6.4652  1-4 EEL =        20.5652  VDWAALS    =       205.1715
 EELEC  =       317.3866  EHBOND  =         0.0000  RESTRAINT  =         3.5520
 EAMBER (non-restraint)  =       186.8483
 EKCMT  =        98.5931  VIRIAL  =      1174.1542  VOLUME     =       518.2976
                                                    Density    =         0.0009
 ------------------------------------------------------------------------------
