-------------------------------------------------------
          Amber 24 PMEMD                              2024
          -------------------------------------------------------

  [-O]verwriting output

File Assignments:

 Here is the input file:

dna_dye: NPT equilibration and slowly remove DNA restraint
 &cntrl
  imin   = 0,			! MD: Minimization turned off (run MD)
  nstlim = 50000,		! MD: # of MD steps
  dt = 0.002,			! MD: Time step (fs)
  irest  = 1,			! INIT: read velocities from previous run
  ntx    = 5,			! INIT: read in coordinates and box dimensions from previous ru
  iwrap  = 1,			! INIT: Wrap molecules back into periodic box when they diffuse
  cut    = 8.0, 		! INIT: Cutoff radius (angstroms) beyond which interactions a
  ntr    = 1,			! INIT: Position restraint on GROUP (below)
  ntc    = 2,			! INIT: Turn on SHAKE to constrain bonds involving hydrogen ato
  ntf    = 2,			! INIT: Do not compute forces for hydrogen atoms (since bonds a
  ntp    = 2,			! BAROSTAT: Constant pressure (NPT) using Berendsen thermostat
  pres0  = 1.0, 		! BAROSTAT: Target pressure (atm)
  taup   = 2.0, 		! BAROSTAT: Pressure relaxation time (ps)
  tempi  = 300.0,		! THERMOSTAT: Start temperature (K)
  temp0  = 300.0,		! THERMOSTAT: Final temperature (K)
  ntt    = 3,			! THERMOSTAT: Langevin thermostat
  gamma_ln = 5.0,		! THERMOSTAT: Collision frequency (ps-1), i.e. random force
  ig=-1,			! THERMOSTAT: Random seed chosen automatically for thermostat
  ntpr = 5000, 			! OUT: How often to write in out file (energy/log data)
  ntwx = 5000, 			! OUT: How often to write in traj file (trajectory data)
  ntwr = 5000, 			! OUT: How often to write in restart file
  ioutfm = 0			! OUT: trajectory output format ASCII
/
Hold the DNA fixed with weaker restrains
10.0
RES 1 40
END
END

Note: ig = -1. Setting random seed to   357158 based on wallclock time in
      microseconds.

--------------------------------------------------------------------------------
   1.  RESOURCE   USE:
--------------------------------------------------------------------------------

 getting box info from netcdf restart file
 NATOM  =   56038 NTYPES =      17 NBONH =   55156 MBONA  =     946
 NTHETH =    1208 MTHETA =    1454 NPHIH =    2502 MPHIA  =    3018
 NHPARM =       0 NPARM  =       0 NNB   =   80482 NRES   =   18290
 NBONA  =     946 NTHETA =    1454 NPHIA =    3018 NUMBND =      54
 NUMANG =     100 NPTRA  =      64 NATYP =      36 NPHB   =       0
 IFBOX  =       1 NMXRS  =      75 IFCAP =       0 NEXTRA =       0
 NCOPY  =       0

     BOX TYPE: RECTILINEAR

--------------------------------------------------------------------------------
   2.  CONTROL  DATA  FOR  THE  RUN
--------------------------------------------------------------------------------

default_name

General flags:
     imin    =       0, nmropt  =       0

Nature and format of input:
     ntx     =       5, irest   =       1, ntrx    =       1

Nature and format of output:
     ntxo    =       2, ntpr    =    5000, ntrx    =       1, ntwr    =    5000
     iwrap   =       1, ntwx    =    5000, ntwv    =       0, ntwe    =       0
     ioutfm  =       0, ntwprt  =       0, idecomp =       0, rbornstat=      0

Potential function:
     ntf     =       2, ntb     =       2, igb     =       0, nsnb    =      25
     ipol    =       0, gbsa    =       0, iesp    =       0
     dielc   =   1.00000, cut     =   8.00000, intdiel =   1.00000

Frozen or restrained atoms:
     ibelly  =       0, ntr     =       1
     restraint_wt =   0.00000

Molecular dynamics:
     nstlim  =     50000, nscm    =         0, nrespa  =         1
     t       =   0.00000, dt      =   0.00200, vlimit  =  -1.00000

Langevin dynamics temperature regulation:
     ig      =  357158
     temp0   = 300.00000, tempi   = 300.00000, gamma_ln=   5.00000

Pressure regulation:
     ntp     =       2
     pres0   =   1.00000, comp    =  44.60000, taup    =   2.00000

SHAKE:
     ntc     =       2, jfastw  =       0
     tol     =   0.00001

Ewald parameters:
     verbose =       0, ew_type =       0, nbflag  =       1, use_pme =       1
     vdwmeth =       1, eedmeth =       1, netfrc  =       1
     Box X =   78.672   Box Y =   73.396   Box Z =  117.138
     Alpha =   90.000   Beta  =   90.000   Gamma =   90.000
     NFFT1 =   80       NFFT2 =   80       NFFT3 =  128
     Cutoff=    8.000   Tol   =0.100E-04
     Ewald Coefficient =  0.34864
     Interpolation order =    4

    LOADING THE CONSTRAINED ATOMS AS GROUPS

   5.  REFERENCE ATOM COORDINATES

  default_name
    ----- READING GROUP     1; TITLE:
 Hold the DNA fixed with weaker restrains

     GROUP    1 HAS HARMONIC CONSTRAINTS    10.00000
 GRP    1 RES    1 TO    40
      Number of atoms in this group  =  1360
    ----- END OF GROUP READ -----

--------------------------------------------------------------------------------
   3.  ATOMIC COORDINATES AND VELOCITIES
--------------------------------------------------------------------------------

default_name
 begin time read from input coords =    20.000 ps

 Number of triangulated 3-point waters found:    18214

     Sum of charges from parm topology file =   0.00100416
     Forcing neutrality...

--------------------------------------------------------------------------------
   4.  RESULTS
 NSTEP =     5000   TIME(PS) =      30.000  TEMP(K) =   298.40  PRESS =  -142.7
 Etot   =   -148432.1931  EKtot   =     33490.4180  EPtot      =   -181922.6111
 BOND   =       310.9039  ANGLE   =       718.0140  DIHED      =      1155.9021
 1-4 NB =       349.2814  1-4 EEL =      -639.9579  VDWAALS    =     25163.3054
 EELEC  =   -209202.8303  EHBOND  =         0.0000  RESTRAINT  =       222.7704
 EAMBER (non-restraint)  =   -182145.3814
 EKCMT  =     16352.0891  VIRIAL  =     18215.2182  VOLUME     =    604679.2192
                                                    Density    =         0.9380
 ------------------------------------------------------------------------------

      A V E R A G E S   O V E R      10 S T E P S

 NSTEP =    50000   TIME(PS) =     120.000  TEMP(K) =   300.12  PRESS =   -40.0
 Etot   =   -149782.2532  EKtot   =     33683.9434  EPtot      =   -183466.1965
 BOND   =       311.6182  ANGLE   =       727.0983  DIHED      =      1153.3636
 1-4 NB =       338.6355  1-4 EEL =      -639.0244  VDWAALS    =     25146.5152
 EELEC  =   -210734.8605  EHBOND  =         0.0000  RESTRAINT  =       230.4575
 EAMBER (non-restraint)  =   -183696.6541
 EKCMT  =     16377.7157  VIRIAL  =     16885.2087  VOLUME     =    571577.4549
                                                    Density    =         0.9928
 ------------------------------------------------------------------------------

      R M S  F L U C T U A T I O N S

 NSTEP =    50000   TIME(PS) =     120.000  TEMP(K) =     1.43  PRESS =    99.2
 Etot   =       592.0745  EKtot   =       160.0945  EPtot      =       602.2454
 BOND   =        11.0032  ANGLE   =        22.9638  DIHED      =         8.9833
 1-4 NB =         5.5403  1-4 EEL =        12.8282  VDWAALS    =       132.7936
 EELEC  =       666.8748  EHBOND  =         0.0000  RESTRAINT  =         8.2942
 EAMBER (non-restraint)  =       593.9512
 EKCMT  =       120.2379  VIRIAL  =      1192.5426  VOLUME     =     12117.5469
                                                    Density    =         0.0202
 ------------------------------------------------------------------------------
