-------------------------------------------------------
          Amber 24 PMEMD                              2024
          -------------------------------------------------------

  [-O]verwriting output

File Assignments:

 Here is the input file:

dna_dye: Heat system with restraint on DNA
 &cntrl
  imin   = 0,			! MD: Minimization turned off (run MD)
  nstlim = 10000,		! MD: # of MD steps
  dt = 0.002,			! MD: Time step (fs)
  irest  = 0,			! INIT: Random initial velocities
  ntx    = 1,			! INIT: Only read in coordinates from *.rst7 file
  ntb    = 1,			! INIT: Volume periodic boundaries
  iwrap  = 1,			! INIT: Wrap molecules back into periodic box when they diffuse
  cut    = 8.0, 		! INIT: Cutoff radius (angstroms) beyond which interactions a
  ntr    = 1,			! INIT: Position restraint on GROUP (below)
  ntc    = 2,			! INIT: Turn on SHAKE to constrain bonds involving hydrogen ato
  ntf    = 2,			! INIT: Do not compute forces for hydrogen atoms (since bonds a
  tempi  = 0.0,			! THERMOSTAT: Start temperature (K)
  temp0  = 300.0,		! THERMOSTAT: Final temperature (K)
  ntt    = 3,			! THERMOSTAT: Langevin thermostat
  gamma_ln = 5.0,		! THERMOSTAT: Collision frequency (ps-1), i.e. random force
  ig=-1,			! THERMOSTAT: Random seed chosen automatically for thermostat
  ntpr = 100, 			! OUT: How often to write in out file (energy/log data)
  ntwx = 100, 			! OUT: How often to write in traj file (trajectory data)
  ntwr = 100, 			! OUT: How often to write in restart file
  ioutfm = 0			! OUT: trajectory output format ASCII
/
Hold the DNA fixed with weak restrains
10.0
RES 1 40
END
END

Note: ig = -1. Setting random seed to   903504 based on wallclock time in
      microseconds.

--------------------------------------------------------------------------------
   1.  RESOURCE   USE:
--------------------------------------------------------------------------------

 getting box info from netcdf restart file
 NATOM  =   56038 NTYPES =      17 NBONH =   55156 MBONA  =     946
 NTHETH =    1208 MTHETA =    1454 NPHIH =    2502 MPHIA  =    3018
 NHPARM =       0 NPARM  =       0 NNB   =   80482 NRES   =   18290
 NBONA  =     946 NTHETA =    1454 NPHIA =    3018 NUMBND =      54
 NUMANG =     100 NPTRA  =      64 NATYP =      36 NPHB   =       0
 IFBOX  =       1 NMXRS  =      75 IFCAP =       0 NEXTRA =       0
 NCOPY  =       0

     BOX TYPE: RECTILINEAR

--------------------------------------------------------------------------------
   2.  CONTROL  DATA  FOR  THE  RUN
--------------------------------------------------------------------------------

default_name

General flags:
     imin    =       0, nmropt  =       0

Nature and format of input:
     ntx     =       1, irest   =       0, ntrx    =       1

Nature and format of output:
     ntxo    =       2, ntpr    =     100, ntrx    =       1, ntwr    =     100
     iwrap   =       1, ntwx    =     100, ntwv    =       0, ntwe    =       0
     ioutfm  =       0, ntwprt  =       0, idecomp =       0, rbornstat=      0

Potential function:
     ntf     =       2, ntb     =       1, igb     =       0, nsnb    =      25
     ipol    =       0, gbsa    =       0, iesp    =       0
     dielc   =   1.00000, cut     =   8.00000, intdiel =   1.00000

Frozen or restrained atoms:
     ibelly  =       0, ntr     =       1
     restraint_wt =   0.00000

Molecular dynamics:
     nstlim  =     10000, nscm    =         0, nrespa  =         1
     t       =   0.00000, dt      =   0.00200, vlimit  =  -1.00000

Langevin dynamics temperature regulation:
     ig      =  903504
     temp0   = 300.00000, tempi   =   0.00000, gamma_ln=   5.00000

SHAKE:
     ntc     =       2, jfastw  =       0
     tol     =   0.00001

Ewald parameters:
     verbose =       0, ew_type =       0, nbflag  =       1, use_pme =       1
     vdwmeth =       1, eedmeth =       1, netfrc  =       1
     Box X =   78.672   Box Y =   73.396   Box Z =  117.138
     Alpha =   90.000   Beta  =   90.000   Gamma =   90.000
     NFFT1 =   80       NFFT2 =   80       NFFT3 =  128
     Cutoff=    8.000   Tol   =0.100E-04
     Ewald Coefficient =  0.34864
     Interpolation order =    4

    LOADING THE CONSTRAINED ATOMS AS GROUPS

   5.  REFERENCE ATOM COORDINATES

  default_name
    ----- READING GROUP     1; TITLE:
 Hold the DNA fixed with weak restrains

     GROUP    1 HAS HARMONIC CONSTRAINTS    10.00000
 GRP    1 RES    1 TO    40
      Number of atoms in this group  =  1360
    ----- END OF GROUP READ -----

--------------------------------------------------------------------------------
   3.  ATOMIC COORDINATES AND VELOCITIES
--------------------------------------------------------------------------------

default_name
 begin time read from input coords =     0.000 ps

 Number of triangulated 3-point waters found:    18214

     Sum of charges from parm topology file =   0.00100416
     Forcing neutrality...

--------------------------------------------------------------------------------
   4.  RESULTS
 NSTEP =        0   TIME(PS) =       0.000  TEMP(K) =     0.00  PRESS =     0.0
 Etot   =   -250623.8798  EKtot   =         0.0000  EPtot      =   -250623.8798
 BOND   =        47.8504  ANGLE   =       287.1288  DIHED      =      1055.9345
 1-4 NB =       309.1065  1-4 EEL =      -632.9333  VDWAALS    =     43934.4789
 EELEC  =   -295625.4455  EHBOND  =         0.0000  RESTRAINT  =         0.0000
 ------------------------------------------------------------------------------

      A V E R A G E S   O V E R     100 S T E P S

 NSTEP =    10000   TIME(PS) =      20.000  TEMP(K) =   298.25  PRESS =     0.0
 Etot   =   -144325.2656  EKtot   =     33474.0037  EPtot      =   -177799.2693
 BOND   =       313.3187  ANGLE   =       720.8756  DIHED      =      1154.8218
 1-4 NB =       335.9689  1-4 EEL =      -638.2157  VDWAALS    =     24056.2853
 EELEC  =   -203974.7173  EHBOND  =         0.0000  RESTRAINT  =       232.3934
 EAMBER (non-restraint)  =   -178031.6626
 ------------------------------------------------------------------------------

      R M S  F L U C T U A T I O N S

 NSTEP =    10000   TIME(PS) =      20.000  TEMP(K) =    12.21  PRESS =     0.0
 Etot   =      3595.3460  EKtot   =      1369.8294  EPtot      =      2245.6883
 BOND   =        18.1218  ANGLE   =        23.8757  DIHED      =         8.4879
 1-4 NB =         5.3346  1-4 EEL =        13.6513  VDWAALS    =      1124.2128
 EELEC  =      3287.1024  EHBOND  =         0.0000  RESTRAINT  =        13.5479
 EAMBER (non-restraint)  =      2232.1404
 ------------------------------------------------------------------------------
